Pcp_File_Version=3
*** BLOCK K: ATMOSPHERIC INFORMATION  **********************************
   MaxAL  BC_Cycles         (MaxAL = number of atmospheric data-records)
      1      1
 hCritS                 (max. allowed pressure head at the soil surface)
      0
       tAtm        Prec       rSoil       rRoot      hCritA          rt          ht          rt          ht          rt          ht          rt          ht
        500           0           0           0         100           2           0           0           0           0           0           0           0 
*** END OF INPUT FILE 'ATMOSPH.IN' *************************************
