Pcp_File_Version=4
*** BLOCK J: BOUNDARY INFORMATION *********************************************
    NumBP     NObs  SeepF  FreeD DrainF  qQWLF
      117        1      t      t      f      f
 Interp H/Flux H/Flx1  Atm/H Seep/H Atm/WL Atm/SF   Snow
      f      f      f      f      f      f      f      f
Gradient SubDrip SurfDrip SeepFace TriggIrrig
      f      f      f      f        f          f      f      f
Node Number Array
      2       3       4       5       6      11      45      46      47      48 
     49      50      51      52      53      54      55      56      57      58 
     59      60      61      62      63      64      65      66      67     131 
    132     133     134     135     136     137     138     139     140     141 
    142     143     144     145     146     147     148     149     150     151 
    152     153     154     155     156     157     158     159     160     161 
    162     163     164     165     166     167     168     169     170     171 
    172     173     174     175     176     177     178     179     180     181 
    182     183     184     185     186     187     188     189     190     191 
    192     193     194     195     196     197     198     199     200     201 
    202     203     204     205     206     207     208     209     210     211 
    212     213     214     215     216     217     218 
Width Array
0.478016 0.916444 0.146143 0.261799 18.5878 0.584572  1.5708 3.14159 4.71239 6.28319 
7.85398 9.42478 10.9956 12.5664 14.1372  15.708 17.2788 18.8496 20.4204 21.9911 
23.5619 25.1327 26.7035 28.2743 29.8451 31.4159 32.9867 34.5575 36.1283 0.956033 
0.956033 0.956033 0.956033 0.956033 0.956033 0.956033 0.956033 0.956033 0.956033 0.956029 
0.956033 0.956033 0.956033 0.956033 0.956033 0.956033 0.956033 0.956033 0.956033 0.956033 
0.956029 0.956033 0.956033 0.956033 0.956033 0.956033 0.956033 0.956033 0.956033 0.956033 
0.956033 0.956029 0.956033 0.956033 0.956033 0.956033 0.956033 0.956033 0.956033 0.956033 
0.956033 0.956033 0.956029 0.956033 0.956035 0.956031 0.956031 0.956033 0.956033 0.956033 
0.956033 0.956035 0.956035 0.956033 0.956031 0.956031 0.956033 0.956033 0.956033 0.956033 
0.956033 0.956031 0.956031 0.956033 0.956033 0.956033 0.956033 0.956033 0.956031 0.956031 
0.956033 0.956033 0.956035 0.956035 0.956033 0.956032 0.956032 0.956033 0.956032 0.956032 
0.956033 0.956033 0.956032 0.956032 0.956033 0.956032 0.956032 
Length of soil surface associated with transpiration
              0
Observation nodes. Node(1,....NObs)
      11 
Number of Flowing points and their indeces
    0
*** BLOCK Ja: SEEPAGE INFORMATION (only if SeepF =.true.) *********************
NSeep                                     (number of s.f. expected to develop)
  1
NSP(1),NSP(2),.......,NSP(NSeep)                (number of nodes in each s.f.)
      92 
NP(i,1),NP(i,2),.....,NP(i,NSP(i))     (nodal number array of i-th s.f.)
       2        3        4       11      131      132      133      134      135      136 
     137      138      139      140      141      142      143      144      145      146 
     147      148      149      150      151      152      153      154      155      156 
     157      158      159      160      161      162      163      164      165      166 
     167      168      169      170      171      172      173      174      175      176 
     177      178      179      180      181      182      183      184      185      186 
     187      188      189      190      191      192      193      194      195      196 
     197      198      199      200      201      202      203      204      205      206 
     207      208      209      210      211      212      213      214      215      216 
     217      218 
*** End of input file 'BOUNDARY.IN' *******************************************
