Pcp_File_Version=4
*** BLOCK A: BASIC INFORMATION *****************************************
Heading
Flow to a well - both through bottom and sides of well
LUnit  TUnit  MUnit  (indicated units are obligatory for all input data)
m
min
mmol
Kat (0:horizontal plane, 1:axisymmetric vertical flow, 2:vertical plane)
  1
MaxIt   TolTh   TolH InitH/W  (max. number of iterations and tolerances)
  10   0.0001   0.01     f
lWat lChem lSink Short Inter lScrn AtmIn lTemp lWTDep lEquil lExtGen lInv
 t     f     f     f     f    t     f     f     f      t      t      t
lUnsatCh lCFSTr   lHP2   m_lActRSU lDummy  lDummy  lDummy
 f       f       f       f       f       f       f
 PrintStep  PrintInterval lEnter
         1              0       t
*** BLOCK B: MATERIAL INFORMATION **************************************
NMat    NLay    hTab1   hTabN     NAniz
  1       1    1e-005      10
    Model   Hysteresis
      0          0
  thr    ths   Alfa     n         Ks      l
 0.065   0.41    7.5   1.89 0.000736806    0.5 
*** BLOCK C: TIME INFORMATION ******************************************
        dt       dtMin       dtMax     DMul    DMul2  ItMin ItMax  MPL
     0.0001      0.0001           1     1.3     0.7     3     7   100
      tInit        tMax
          0         100
TPrint(1),TPrint(2),...,TPrint(MPL)
          1           2           3           4           5           6 
          7           8           9          10          11          12 
         13          14          15          16          17          18 
         19          20          21          22          23          24 
         25          26          27          28          29          30 
         31          32          33          34          35          36 
         37          38          39          40          41          42 
         43          44          45          46          47          48 
         49          50          51          52          53          54 
         55          56          57          58          59          60 
         61          62          63          64          65          66 
         67          68          69          70          71          72 
         73          74          75          76          77          78 
         79          80          81          82          83          84 
         85          86          87          88          89          90 
         91          92          93          94          95          96 
         97          98          99         100 
*** END OF INPUT FILE 'SELECTOR.IN' ************************************
